17
Properties=species:S:1:pos:R:3 name=Gallium seed=1 steps=1200 rank=0 mode=eval pbc="F F F"
Ga      14.92423000      14.75250000      15.03988000
Ga      17.21614000      12.68355000      15.52483000
Ga      13.18024000      17.05917000      14.83416000
Ga      16.29042000      16.66696000      12.93997000
Ga      14.05887000      13.32284000      17.40169000
Ga      14.03092000      16.22293000      17.44320000
Ga      15.72376000      13.46009000      12.80704000
Ga      14.68849000      11.83257000      15.14774000
Ga      15.15764000      18.74065000      14.35502000
Ga      17.58308000      14.95031000      14.36383000
Ga      12.34645000      14.68529000      15.79180000
Ga      16.28007000      16.92295000      15.94122000
Ga      12.97897000      13.31638000      13.63459000
Ga      13.95785000      18.29333000      11.99012000
Ga      16.25244000      11.80617000      17.95467000
Ga      13.84034000      15.62039000      12.52286000
Ga      16.49009000      14.66391000      17.30737000
10
Properties=species:S:1:pos:R:3 name=Gallium seed=1 steps=1200 rank=0 mode=eval pbc="F F F"
Ga      15.98075000      13.29451000      14.55410000
Ga      13.83228000      16.66525000      12.53723000
Ga      12.56430000      16.70260000      14.82305000
Ga      14.16679000      14.15307000      12.78548000
Ga      15.79163000      16.01424000      14.39064000
Ga      18.22321000      14.57699000      15.01128000
Ga      12.96219000      14.08560000      15.10425000
Ga      16.98781000      15.17737000      17.26771000
Ga      14.45232000      15.94680000      16.57510000
Ga      15.03872000      13.38358000      16.95117000
7
Properties=species:S:1:pos:R:3 name=Gallium seed=1 steps=1200 rank=0 mode=eval pbc="F F F"
Ga      13.58561000      14.48195000      13.79905000
Ga      13.88834000      14.24947000      16.38400000
Ga      15.95276000      16.88630000      15.05693000
Ga      15.89259000      12.83937000      14.70160000
Ga      16.33396000      14.79587000      16.47710000
Ga      13.39051000      16.66338000      15.33672000
Ga      15.95623000      15.08365000      13.24460000
17
Properties=species:S:1:pos:R:3 name=Gallium seed=1 steps=1200 rank=0 mode=eval pbc="F F F"
Ga      15.24362000      14.98064000      15.13215000
Ga      16.60888000      12.17929000      15.09614000
Ga      13.43585000      17.25179000      15.11405000
Ga      13.87801000      15.00868000      12.25783000
Ga      15.94995000      14.55103000      17.89903000
Ga      13.24576000      15.38000000      17.28063000
Ga      17.02975000      14.66284000      13.13456000
Ga      14.30826000      12.78761000      16.50306000
Ga      15.41871000      17.03458000      13.14701000
Ga      17.36063000      16.81211000      15.01809000
Ga      12.69379000      14.10010000      14.86132000
Ga      15.48512000      17.02352000      16.85154000
Ga      14.81463000      12.89466000      13.39439000
Ga      13.09709000      17.89334000      12.00033000
Ga      16.79049000      11.96041000      17.83866000
Ga      11.68458000      16.14445000      13.47758000
Ga      17.95490000      14.33493000      15.99363000
14
Properties=species:S:1:pos:R:3 name=Gallium seed=1 steps=1200 rank=0 mode=eval pbc="F F F"
Ga      14.92545000      14.91809000      15.03001000
Ga      16.47560000      14.08268000      12.77242000
Ga      17.52058000      13.89780000      15.14071000
Ga      15.27507000      12.49300000      16.18923000
Ga      13.52795000      17.29314000      14.25219000
Ga      14.29733000      12.59579000      13.75884000
Ga      17.05024000      16.53437000      15.78095000
Ga      16.01765000      14.75763000      17.56282000
Ga      14.50839000      17.15038000      16.65125000
Ga      13.29700000      14.61671000      17.17602000
Ga      13.84387000      15.06481000      12.55276000
Ga      16.04461000      16.73060000      13.33285000
Ga      12.21626000      14.86501000      14.79996000
Ga       9.90680341      14.64830328      16.54132722
14
Properties=species:S:1:pos:R:3 name=Gallium seed=1 steps=1200 rank=0 mode=eval pbc="F F F"
Ga      15.17664000      14.93163000      15.22149000
Ga      13.55632000      13.63808000      17.04638000
Ga      14.30741000      17.12144000      13.93198000
Ga      16.88624000      13.30837000      13.86001000
Ga      12.56597000      15.81526000      12.03365000
Ga      12.45738000      14.96153000      14.86174000
Ga      13.92287000      13.42253000      13.37431000
Ga      17.61273000      15.97662000      14.45907000
Ga      16.18878000      17.41471000      16.03147000
Ga      17.30651000      13.85373000      16.54532000
Ga      15.68262000      15.40669000      12.54570000
Ga      15.66315000      15.33031000      17.85023000
Ga      15.09410000      12.16820000      15.58594000
Ga      13.57928000      16.65090000      16.65269000
8
Properties=species:S:1:pos:R:3 name=Gallium seed=1 steps=1200 rank=0 mode=eval pbc="F F F"
Ga      14.96526000      14.95013000      15.52605000
Ga      12.44842000      14.70765000      14.67856000
Ga      13.87057000      12.54508000      14.56162000
Ga      16.14573000      17.47869000      15.18563000
Ga      16.42942000      12.81171000      14.87130000
Ga      17.56841000      15.31540000      15.07760000
Ga      13.57218000      17.19134000      15.09923000
Ga      10.12728043      13.21577888      13.78183464
16
Properties=species:S:1:pos:R:3 name=Gallium seed=1 steps=1200 rank=0 mode=eval pbc="F F F"
Ga      14.88260000      15.10722000      15.47273000
Ga      16.71727000      13.45416000      13.78529000
Ga      14.48062000      15.99379000      12.63312000
Ga      12.83498000      13.39753000      15.70569000
Ga      16.99499000      16.48185000      14.36037000
Ga      17.52417000      14.75491000      16.24132000
Ga      15.49090000      14.08638000      18.07864000
Ga      13.90135000      13.29961000      13.36192000
Ga      14.80579000      17.81031000      14.86558000
Ga      13.03505000      16.82301000      16.84400000
Ga      15.98435000      16.90394000      17.26450000
Ga      16.92955000      15.31980000      11.93732000
Ga      15.60000000      12.55444000      15.92845000
Ga      12.58465000      15.97961000      14.38392000
Ga      15.27747000      13.44570000      10.99506000
Ga      12.95624000      14.58775000      18.14207000
10
Properties=species:S:1:pos:R:3 name=Gallium seed=1 steps=1200 rank=0 mode=eval pbc="F F F"
Ga      14.84399000      13.97374000      15.75054000
Ga      15.91708000      16.12807000      14.24445000
Ga      13.50221000      16.60097000      13.81964000
Ga      14.34684000      14.03855000      12.85530000
Ga      16.69540000      13.35231000      13.77272000
Ga      12.54840000      14.36716000      14.72648000
Ga      13.53209000      16.43302000      16.44291000
Ga      15.98369000      15.98767000      17.19005000
Ga      17.63030000      14.11853000      16.19791000
Ga      10.74782210      16.83262077      15.73101978
10
Properties=species:S:1:pos:R:3 name=Gallium seed=1 steps=1200 rank=0 mode=eval pbc="F F F"
Ga      14.35225000      15.26887000      16.33616000
Ga      15.17852000      13.55505000      13.88509000
Ga      12.12552000      13.92806000      13.86796000
Ga      13.61208000      16.05391000      13.98675000
Ga      13.52681000      12.72530000      15.77215000
Ga      15.84492000      17.45440000      16.16325000
Ga      15.46151000      17.89092000      13.63851000
Ga      17.12722000      14.95174000      16.29942000
Ga      16.19346000      12.61010000      16.23148000
Ga      16.57772000      15.56166000      13.81923000
11
Properties=species:S:1:pos:R:3 name=Gallium seed=1 steps=3600 rank=0 mode=eval pbc="F F F"
Ga      15.98075000      13.29451000      14.55410000
Ga      13.83228000      16.66525000      12.53723000
Ga      12.56430000      16.70260000      14.82305000
Ga      14.16679000      14.15307000      12.78548000
Ga      15.79163000      16.01424000      14.39064000
Ga      18.22321000      14.57699000      15.01128000
Ga      12.96219000      14.08560000      15.10425000
Ga      16.98781000      15.17737000      17.26771000
Ga      14.45232000      15.94680000      16.57510000
Ga      15.03872000      13.38358000      16.95117000
Ga      14.51504432      15.19422832      18.77926829
17
Properties=species:S:1:pos:R:3 name=Gallium seed=1 steps=3600 rank=0 mode=eval pbc="F F F"
Ga      11.29771000      13.13970000      14.84367000
Ga      13.50476000      14.42638000      13.35033000
Ga      15.89660000      15.11186000      17.96870000
Ga      15.65896000      12.83694000      13.58031000
Ga      13.60326000      11.86087000      15.03753000
Ga      13.52954000      17.01369000      14.05477000
Ga      13.51922000      14.08520000      16.56015000
Ga      11.64928000      15.68704000      15.46744000
Ga      17.63847000      16.22278000      16.06514000
Ga      15.84228000      15.69263000      12.52295000
Ga      14.14983000      16.82312000      16.83316000
Ga      17.88317000      14.22602000      14.26611000
Ga      18.29452000      16.87618000      13.26735000
Ga      16.02061000      17.86938000      14.66567000
Ga      16.10561000      12.93930000      16.39448000
Ga      15.40617000      15.18892000      15.12226000
Ga      11.74040025      10.73296506      13.29435598
14
Properties=species:S:1:pos:R:3 name=Gallium seed=1 steps=3600 rank=0 mode=eval pbc="F F F"
Ga      15.24648000      14.81926000      14.91802000
Ga      16.92039000      15.09230000      16.94397000
Ga      12.73424000      14.17568000      15.59317000
Ga      14.98140000      14.06627000      12.24679000
Ga      17.58751000      13.28315000      14.31570000
Ga      14.36620000      12.38403000      14.12235000
Ga      14.77580000      17.28626000      13.93254000
Ga      15.74915000      12.54815000      16.36739000
Ga      12.96570000      15.45946000      13.33798000
Ga      16.96223000      15.67907000      13.10242000
Ga      17.12512000      17.07995000      15.33941000
Ga      14.38913000      16.82211000      16.55831000
Ga      14.35758000      14.35198000      17.68011000
Ga      11.83909000      16.95235000      15.54186000
13
Properties=species:S:1:pos:R:3 name=Gallium seed=1 steps=3600 rank=0 mode=eval pbc="F F F"
Ga      14.88666000      14.99151000      15.03345000
Ga      12.72835000      16.51468000      14.44097000
Ga      16.33886000      12.63094000      15.81665000
Ga      16.71208000      15.33635000      12.96619000
Ga      13.51282000      16.37559000      16.94065000
Ga      17.57850000      15.03891000      15.45635000
Ga      12.83413000      13.52420000      14.06064000
Ga      15.52661000      12.86956000      13.36395000
Ga      16.16583000      17.16022000      16.43936000
Ga      15.62421000      14.67271000      17.59492000
Ga      13.64712000      13.05445000      16.50751000
Ga      15.36235000      17.51962000      13.99631000
Ga      14.08248000      15.31126000      12.38305000
10
Properties=species:S:1:pos:R:3 name=Gallium seed=1 steps=3600 rank=0 mode=eval pbc="F F F"
Ga      14.14211000      14.27277000      13.74485000
Ga      12.77136000      16.55878000      13.28681000
Ga      14.00313000      17.69005000      15.31276000
Ga      14.09849000      12.32868000      16.54296000
Ga      15.71804000      16.82964000      13.46724000
Ga      15.95238000      12.29395000      14.68468000
Ga      16.12268000      16.41854000      16.19108000
Ga      16.56087000      13.97897000      16.65406000
Ga      13.76146000      14.98479000      16.14979000
Ga      16.86948000      14.64384000      13.96577000
15
Properties=species:S:1:pos:R:3 name=Gallium seed=1 steps=3600 rank=0 mode=eval pbc="F F F"
Ga      13.89300000      13.48634000      15.12483000
Ga      11.87645000      15.26743000      13.71857000
Ga      17.74057000      13.28764000      16.94073000
Ga      16.49434000      13.09426000      14.57395000
Ga      12.63419000      12.90788000      12.83978000
Ga      13.79175000      14.17301000      18.14779000
Ga      12.84139000      15.79634000      16.21760000
Ga      16.81865000      17.42082000      16.90704000
Ga      14.59772000      15.38853000      13.35079000
Ga      14.83578000      17.40476000      15.16488000
Ga      18.55495000      15.60768000      16.02705000
Ga      17.13033000      15.68286000      13.86443000
Ga      12.90309000      17.63894000      13.38936000
Ga      15.20602000      12.84063000      12.36360000
Ga      15.68177000      15.00289000      16.36959000
18
Properties=species:S:1:pos:R:3 name=Gallium seed=1 steps=3600 rank=0 mode=eval pbc="F F F"
Ga      15.26029000      14.93655000      15.14824000
Ga      16.82358000      12.41677000      14.96581000
Ga      13.14732000      17.12640000      15.12519000
Ga      14.06963000      15.13089000      12.28592000
Ga      15.75529000      14.61430000      17.98556000
Ga      13.26900000      15.32550000      17.17183000
Ga      16.87786000      14.68652000      13.07395000
Ga      14.43680000      12.68267000      16.39813000
Ga      15.38636000      17.21318000      13.45299000
Ga      17.51438000      16.64642000      14.94170000
Ga      12.69612000      13.94964000      14.84868000
Ga      15.45858000      17.09818000      16.62456000
Ga      14.74780000      12.83599000      13.38786000
Ga      12.99130000      17.89983000      12.17630000
Ga      16.96970000      12.08797000      17.77221000
Ga      11.63543000      15.84926000      13.30340000
Ga      17.96056000      14.49995000      16.33765000
Ga      18.38996532      14.04307733      19.37174713
8
Properties=species:S:1:pos:R:3 name=Gallium seed=1 steps=3600 rank=0 mode=eval pbc="F F F"
Ga      14.82088000      14.87132000      15.50153000
Ga      13.02028000      13.55832000      13.78239000
Ga      12.79003000      16.08870000      14.28279000
Ga      15.24862000      12.43663000      14.47607000
Ga      17.06053000      16.50146000      15.98566000
Ga      17.33413000      13.99630000      15.38391000
Ga      14.72553000      17.54726000      15.58765000
Ga      16.29419119      14.85032137      17.94887310
14
Properties=species:S:1:pos:R:3 name=Gallium seed=1 steps=3600 rank=0 mode=eval pbc="F F F"
Ga      15.24795000      14.84868000      14.95220000
Ga      14.50623000      12.40954000      15.87555000
Ga      13.60105000      14.95050000      17.10354000
Ga      14.56137000      12.89467000      13.12422000
Ga      17.13830000      16.15284000      16.49160000
Ga      15.58730000      15.05379000      12.18968000
Ga      16.04049000      17.27207000      13.91157000
Ga      17.05205000      12.79509000      14.81664000
Ga      12.60612000      14.08755000      14.68803000
Ga      13.43919000      16.26637000      13.54649000
Ga      16.18006000      13.94390000      17.41477000
Ga      17.74501000      15.12811000      13.96333000
Ga      14.57586000      17.17982000      16.20426000
Ga      11.71901000      17.01706000      15.71813000
17
Properties=species:S:1:pos:R:3 name=Gallium seed=1 steps=3600 rank=0 mode=eval pbc="F F F"
Ga      15.28316000      14.91803000      15.15579000
Ga      16.84255000      12.46193000      14.90514000
Ga      13.09131000      17.10727000      15.15062000
Ga      14.07259000      15.17808000      12.30442000
Ga      15.75916000      14.58372000      17.99968000
Ga      13.34007000      15.35280000      17.16275000
Ga      16.81125000      14.70486000      13.02328000
Ga      14.44526000      12.66353000      16.38285000
Ga      15.35460000      17.25682000      13.56568000
Ga      17.57636000      16.58046000      14.87944000
Ga      12.69386000      13.96309000      14.87567000
Ga      15.51955000      17.10851000      16.58847000
Ga      14.69834000      12.82455000      13.37549000
Ga      12.94428000      17.94271000      12.27047000
Ga      16.99003000      12.04655000      17.71113000
Ga      11.61224000      15.81172000      13.28324000
Ga      17.96540000      14.49536000      16.36587000
